&clm_inparm
 hist_mfilt = 365
 hist_nhtfrq = -24
 finidat = '/lustre/haven/user/ywang254/E3SM/output/20220407_stopdate171_switch2_US-SPR_ICB1850CNPRDCTCBC/run/20220407_stopdate171_switch2_US-SPR_ICB1850CNPRDCTCBC.clm2.r.0403-01-01-00000.nc'
 fsurdat = '/lustre/haven/user/ywang254/E3SM/output/20220407_stopdate171_switch2_US-SPR_ICB20TRCNPRDCTCBC/run/surfdata.nc'
 flanduse_timeseries = '/lustre/haven/user/ywang254/E3SM/output/20220407_stopdate171_switch2_US-SPR_ICB20TRCNPRDCTCBC/run/surfdata.pftdyn.nc'
 check_finidat_fsurdat_consistency = .false.
 check_finidat_year_consistency = .false.
 paramfile = '/lustre/haven/user/ywang254/E3SM/output/20220407_stopdate171_switch2_US-SPR_ICB20TRCNPRDCTCBC/run/clm_params.nc'
 fsoilordercon = '/lustre/haven/user/ywang254/E3SM/output/20220407_stopdate171_switch2_US-SPR_ICB20TRCNPRDCTCBC/run/CNP_parameters.nc'
 stream_fldfilename_ndep = '/lustre/haven/user/ywang254/E3SM/inputdata/lnd/clm2/ndepdata/fndep_clm_rcp4.5_simyr1849-2106_1.9x2.5_c100428.nc'
 use_nitrif_denitrif = .true.
 use_nofire = .true.
 nyears_ad_carbon_only = 25
 spinup_mortality_factor = 10
metdata_type = 'site'
 metdata_bypass = '/lustre/haven/user/ywang254/E3SM/inputdata/atm/datm7/CLM1PT_data/SPRUCE_data'
 co2_file = '/lustre/haven/user/ywang254/E3SM/inputdata/atm/datm7/CO2/fco2_datm_rcp4.5_1765-2500_c130312.nc'
 aero_file = '/lustre/haven/user/ywang254/E3SM/inputdata/atm/cam/chem/trop_mozart_aero/aero/aerosoldep_rcp4.5_monthly_1849-2104_1.9x2.5_c100402.nc'
